test/resources/extensions/cvg/currentLimitsPerSeason.xml
<?xml version="1.0" encoding="UTF-8"?>
<iidm:network xmlns:iidm="http://www.itesla_project.eu/schema/iidm/1_0" xmlns:clps="http://www.itesla_project.eu/schema/iidm/ext/current-limits-per-season/1_0" id="sim1" caseDate="2018-01-01T11:00:00+01:00" forecastDistance="0" sourceFormat="test">
    <iidm:substation id="P1" country="FR" tso="RTE" geographicalTags="A">
        <iidm:voltageLevel id="VLGEN" nominalV="24" topologyKind="BUS_BREAKER">
            <iidm:busBreakerTopology>
                <iidm:bus id="NGEN"/>
            </iidm:busBreakerTopology>
            <iidm:generator id="GEN" energySource="OTHER" minP="-9999.9899999999998" maxP="9999.9899999999998" voltageRegulatorOn="true" targetP="607" targetV="24.5" targetQ="301" bus="NGEN" connectableBus="NGEN">
                <iidm:minMaxReactiveLimits minQ="-9999.9899999999998" maxQ="9999.9899999999998"/>
            </iidm:generator>
            <iidm:generator id="GEN2" energySource="OTHER" minP="-9999.9899999999998" maxP="9999.9899999999998" voltageRegulatorOn="true" targetP="607" targetV="24.5" targetQ="301" bus="NGEN" connectableBus="NGEN">
                <iidm:minMaxReactiveLimits minQ="-1.7976931348623157e+308" maxQ="1.7976931348623157e+308"/>
            </iidm:generator>
        </iidm:voltageLevel>
        <iidm:voltageLevel id="VLHV1" nominalV="380" lowVoltageLimit="400" highVoltageLimit="500" topologyKind="BUS_BREAKER">
            <iidm:busBreakerTopology>
                <iidm:bus id="NHV1" v="380"/>
            </iidm:busBreakerTopology>
        </iidm:voltageLevel>
        <iidm:twoWindingsTransformer id="NGEN_NHV1" r="0.26658461538461536" x="11.104492831516762" g="0" b="0" ratedU1="24" ratedU2="400" bus1="NGEN" connectableBus1="NGEN" voltageLevelId1="VLGEN" bus2="NHV1" connectableBus2="NHV1" voltageLevelId2="VLHV1"/>
    </iidm:substation>
    <iidm:substation id="P2" country="BE" tso="RTE" geographicalTags="B">
        <iidm:voltageLevel id="VLHV2" nominalV="380" lowVoltageLimit="300" highVoltageLimit="500" topologyKind="BUS_BREAKER">
            <iidm:busBreakerTopology>
                <iidm:bus id="NHV2" v="380"/>
            </iidm:busBreakerTopology>
        </iidm:voltageLevel>
        <iidm:voltageLevel id="VLLOAD" nominalV="150" topologyKind="BUS_BREAKER">
            <iidm:busBreakerTopology>
                <iidm:bus id="NLOAD"/>
            </iidm:busBreakerTopology>
            <iidm:load id="LOAD" loadType="UNDEFINED" p0="600" q0="200" bus="NLOAD" connectableBus="NLOAD"/>
        </iidm:voltageLevel>
        <iidm:twoWindingsTransformer id="NHV2_NLOAD" r="0.047249999999999993" x="4.0497243656204551" g="0" b="0" ratedU1="400" ratedU2="158" bus1="NHV2" connectableBus1="NHV2" voltageLevelId1="VLHV2" bus2="NLOAD" connectableBus2="NLOAD" voltageLevelId2="VLLOAD">
            <iidm:ratioTapChanger lowTapPosition="0" tapPosition="1" loadTapChangingCapabilities="true" regulating="true" targetV="158">
                <iidm:terminalRef id="NHV2_NLOAD" side="TWO"/>
                <iidm:step r="0" x="0" g="0" b="0" rho="0.85056666666666658"/>
                <iidm:step r="0" x="0" g="0" b="0" rho="1.0006666666666666"/>
                <iidm:step r="0" x="0" g="0" b="0" rho="1.1507666666666665"/>
            </iidm:ratioTapChanger>
        </iidm:twoWindingsTransformer>
    </iidm:substation>
    <iidm:line id="NHV1_NHV2_1" r="3" x="33" g1="0" b1="0.000193" g2="0" b2="0.000193" bus1="NHV1" connectableBus1="NHV1" voltageLevelId1="VLHV1" bus2="NHV2" connectableBus2="NHV2" voltageLevelId2="VLHV2" p1="560" q1="550" p2="560" q2="550">
        <iidm:currentLimits1 permanentLimit="500"/>
        <iidm:currentLimits2 permanentLimit="1100">
            <iidm:temporaryLimit name="10'" acceptableDuration="600" value="1200"/>
            <iidm:temporaryLimit name="1'" acceptableDuration="60" value="1500"/>
        </iidm:currentLimits2>
    </iidm:line>
    <iidm:line id="NHV1_NHV2_2" r="3" x="33" g1="0" b1="0.000193" g2="0" b2="0.000193" bus1="NHV1" connectableBus1="NHV1" voltageLevelId1="VLHV1" bus2="NHV2" connectableBus2="NHV2" voltageLevelId2="VLHV2" p1="560" q1="550" p2="560" q2="550">
        <iidm:currentLimits1 permanentLimit="1100">
            <iidm:temporaryLimit name="20'" acceptableDuration="1200" value="1200"/>
        </iidm:currentLimits1>
        <iidm:currentLimits2 permanentLimit="500"/>
    </iidm:line>
    <iidm:extension id="LOAD">
        <clps:currentLimitsPerSeason>
            <clps:season name="AUTOMNE">
                <clps:currentLimits2 permanentLimit="1100">
                    <clps:temporaryLimit name="20'" acceptableDuration="1200" value="1200"/>
                </clps:currentLimits2>
                <clps:currentLimits3 permanentLimit="500"/>
            </clps:season>
            <clps:season name="ETE">
                <clps:currentLimits permanentLimit="500"/>
                <clps:currentLimits1 permanentLimit="1100">
                    <clps:temporaryLimit name="10'" acceptableDuration="600" value="1200"/>
                    <clps:temporaryLimit name="1'" acceptableDuration="60" value="1500"/>
                </clps:currentLimits1>
            </clps:season>
            <clps:season name="PRINTEMPS">
                <clps:currentLimits permanentLimit="500"/>
                <clps:currentLimits1 permanentLimit="1100">
                    <clps:temporaryLimit name="10'" acceptableDuration="600" value="1200"/>
                    <clps:temporaryLimit name="1'" acceptableDuration="60" value="1500"/>
                </clps:currentLimits1>
                <clps:currentLimits2 permanentLimit="1100">
                    <clps:temporaryLimit name="20'" acceptableDuration="1200" value="1200"/>
                </clps:currentLimits2>
                <clps:currentLimits3 permanentLimit="500"/>
            </clps:season>
        </clps:currentLimitsPerSeason>
    </iidm:extension>
</iidm:network>
